*Heading
*Node
      1,           0.,          -5.,           5.
      2,           0.,          -4.,           5.
      3,           0.,          -3.,           5.
      4,           0.,          -2.,           5.
      5,           0.,          -1.,           5.
      6,           0.,           0.,           5.
      7,           0.,          -5.,           4.
      8,           0.,          -4.,           4.
      9,           0.,          -3.,           4.
     10,           0.,          -2.,           4.
     11,           0.,          -1.,           4.
     12,           0.,           0.,           4.
     13,           0.,          -5.,           3.
     14,           0.,          -4.,           3.
     15,           0.,          -3.,           3.
     16,           0.,          -2.,           3.
     17,           0.,          -1.,           3.
     18,           0.,           0.,           3.
     19,           0.,          -5.,           2.
     20,           0.,          -4.,           2.
** ... 1096 like lines cut
*Element, type=DC3D8
  1,   37,   38,   44,   43,    1,    2,    8,    7
  2,   38,   39,   45,   44,    2,    3,    9,    8
  3,   39,   40,   46,   45,    3,    4,   10,    9
  4,   40,   41,   47,   46,    4,    5,   11,   10
  5,   41,   42,   48,   47,    5,    6,   12,   11
  6,   43,   44,   50,   49,    7,    8,   14,   13
  7,   44,   45,   51,   50,    8,    9,   15,   14
  8,   45,   46,   52,   51,    9,   10,   16,   15
  9,   46,   47,   53,   52,   10,   11,   17,   16
 10,   47,   48,   54,   53,   11,   12,   18,   17
 11,   49,   50,   56,   55,   13,   14,   20,   19
 12,   50,   51,   57,   56,   14,   15,   21,   20
 13,   51,   52,   58,   57,   15,   16,   22,   21
 14,   52,   53,   59,   58,   16,   17,   23,   22
 15,   53,   54,   60,   59,   17,   18,   24,   23
 16,   55,   56,   62,   61,   19,   20,   26,   25
 17,   56,   57,   63,   62,   20,   21,   27,   26
 18,   57,   58,   64,   63,   21,   22,   28,   27
 19,   58,   59,   65,   64,   22,   23,   29,   28
 20,   59,   60,   66,   65,   23,   24,   30,   29
** ... 730 like lines cut
*Nset, nset=_PICKEDSET3, generate
    1,  1116,     1
*Elset, elset=_PICKEDSET3, generate
   1,  750,    1
*Solid Section, elset=_PICKEDSET3, material=MATERIAL-1
,
*System
*Nset, nset=_PICKEDSET5, generate
    1,  1116,     1
*Elset, elset=_PICKEDSET5, generate
   1,  750,    1
*Elset, elset=__PICKEDSURF4_S1, generate
 726,  750,    1
*Surface, type=ELEMENT, name=_PICKEDSURF4
__PICKEDSURF4_S1, S1
*Material, name=MATERIAL-1
*Conductivity
 16.3,
*Density
 7.8e-09,
*Specific Heat
500000.,
*Initial Conditions, type=TEMPERATURE
_PICKEDSET5, 25.
** ----------------------------------------------------------------
*Step, name=Step-1, nlgeom=NO
*Heat Transfer
0.1, 10., 0.0001, 0.1, 
*Dflux
__PICKEDSURF4_S1, S1, 100.
*Output, field
*Node File
NT, 
*End Step
